packages/bdgd2opendss/bdgd2opendss-1.0.1.tar.gz/bdgd2opendss-1.0.1/tests/dss_models_output/sub__/1_3PAS_1/GD_BT_202312598_1_3PAS_1_------1-----.dss
New "LoadShape.default_pv_daily_bt" npts=24 interval=1 
~ mult = [0 0 0 0 0 0 0.1 0.2 0.3 0.5 0.8 0.9 1.0 1.0 0.99 0.9 0.7 0.4 0.1 0 0 0 0 0] 

New "generator.GD.RS.001.752.767" phases=1 bus1=UC2819344.1.2.4 basefreq=60 conn=Delta kv=0.44 pf=0.92 kw=6.0 daily=default_pv_daily_bt 

New "generator.GD.RS.000.479.742" phases=1 bus1=UC2818315.1.2.4 basefreq=60 conn=Delta kv=0.44 pf=0.92 kw=12.0 daily=default_pv_daily_bt 

New "generator.GD.RS.001.993.703" phases=1 bus1=UC2818321.1.4 basefreq=60 conn=Wye kv=0.22 pf=0.92 kw=2.75 daily=default_pv_daily_bt 

New "generator.GD.RS.001.067.191" phases=1 bus1=UC2805257.1.2.4 basefreq=60 conn=Delta kv=0.38 pf=0.92 kw=14.0 daily=default_pv_daily_bt 

New "generator.GD.RS.000.211.027" phases=1 bus1=UC2805313.1.2.4 basefreq=60 conn=Delta kv=0.44 pf=0.92 kw=10.0 daily=default_pv_daily_bt 

New "generator.GD.RS.000.913.083" phases=1 bus1=UC2805243.1.4 basefreq=60 conn=Wye kv=0.22 pf=0.92 kw=7.0 daily=default_pv_daily_bt 

New "generator.GD.RS.001.431.682" phases=1 bus1=UC2805230.2.4 basefreq=60 conn=Wye kv=0.22 pf=0.92 kw=2.75 daily=default_pv_daily_bt 

New "generator.GD.RS.001.067.206" phases=1 bus1=UC2825278.1.4 basefreq=60 conn=Wye kv=0.22 pf=0.92 kw=3.0 daily=default_pv_daily_bt 

New "generator.GD.RS.001.370.835" phases=1 bus1=UC2823636.1.4 basefreq=60 conn=Wye kv=0.2193931022920578 pf=0.92 kw=4.4 daily=default_pv_daily_bt 

New "generator.GD.RS.001.677.376" phases=1 bus1=UC2805202.1.4 basefreq=60 conn=Wye kv=0.2193931022920578 pf=0.92 kw=8.0 daily=default_pv_daily_bt 

New "generator.GD.RS.001.121.103" phases=1 bus1=UC2828397.1.4 basefreq=60 conn=Wye kv=0.2193931022920578 pf=0.92 kw=3.0 daily=default_pv_daily_bt 

New "generator.GD.RS.000.913.095" phases=3 bus1=UC2818334.1.2.3.4 basefreq=60 conn=Delta kv=0.38 pf=0.92 kw=20.0 daily=default_pv_daily_bt 

New "generator.GD.RS.000.275.558" phases=1 bus1=UC2831189.1.4 basefreq=60 conn=Wye kv=0.2193931022920578 pf=0.92 kw=3.0 daily=default_pv_daily_bt 

New "generator.GD.RS.001.752.777" phases=1 bus1=UC2836304.1.4 basefreq=60 conn=Wye kv=0.22 pf=0.92 kw=8.0 daily=default_pv_daily_bt 

New "generator.GD.RS.000.653.110" phases=1 bus1=UC2835967.1.2.4 basefreq=60 conn=Delta kv=0.44 pf=0.92 kw=12.0 daily=default_pv_daily_bt 

New "generator.GD.RS.000.586.589" phases=3 bus1=UC2834138.1.2.3.4 basefreq=60 conn=Delta kv=0.38 pf=0.92 kw=15.0 daily=default_pv_daily_bt 

New "generator.GD.RS.002.133.132" phases=3 bus1=UC2832903.1.2.3.4 basefreq=60 conn=Delta kv=0.38 pf=0.92 kw=10.26 daily=default_pv_daily_bt 

New "generator.GD.RS.000.965.463" phases=1 bus1=UC2831492.2.4 basefreq=60 conn=Wye kv=0.2193931022920578 pf=0.92 kw=2.67 daily=default_pv_daily_bt 

New "generator.GD.RS.000.859.692" phases=1 bus1=UC2831486.1.4 basefreq=60 conn=Wye kv=0.22 pf=0.92 kw=3.0 daily=default_pv_daily_bt 

New "generator.GD.RS.000.088.566" phases=1 bus1=UC2828509.1.4 basefreq=60 conn=Wye kv=0.2193931022920578 pf=0.92 kw=3.0 daily=default_pv_daily_bt 

New "generator.GD.RS.000.687.207" phases=1 bus1=UC2828399.1.2.4 basefreq=60 conn=Delta kv=0.44 pf=0.92 kw=16.91 daily=default_pv_daily_bt 

